Version 4.1
SHEET 1 880 680
WIRE -320 -96 -480 -96
WIRE -208 -16 -224 -16
WIRE 272 -16 192 -16
WIRE 528 -16 352 -16
WIRE -480 32 -480 -96
WIRE 320 64 240 64
WIRE 48 80 -336 80
WIRE 160 80 128 80
WIRE 240 112 240 64
WIRE -336 128 -336 80
WIRE 160 128 160 80
WIRE 192 128 192 -16
WIRE 192 128 160 128
WIRE 208 128 192 128
WIRE -480 144 -480 112
WIRE -480 144 -544 144
WIRE 528 144 528 -16
WIRE 528 144 272 144
WIRE 656 144 528 144
WIRE -224 160 -224 -16
WIRE -48 160 -224 160
WIRE 112 160 32 160
WIRE 208 160 112 160
WIRE 112 176 112 160
WIRE -544 192 -544 144
WIRE -480 192 -480 144
WIRE -224 192 -224 160
WIRE 240 288 240 176
WIRE 256 288 240 288
WIRE 112 320 112 240
WIRE -224 368 -224 272
WIRE -480 416 -480 272
WIRE -464 416 -480 416
FLAG 112 320 0
FLAG -336 128 0
FLAG 656 144 Vout
IOPIN 656 144 BiDir
FLAG -224 368 0
FLAG -544 192 0
FLAG -464 416 Vss
IOPIN -464 416 BiDir
FLAG -320 -96 Vdd
IOPIN -320 -96 BiDir
FLAG -208 -16 Vin
IOPIN -208 -16 BiDir
FLAG 320 64 Vdd
IOPIN 320 64 BiDir
FLAG 256 288 Vss
IOPIN 256 288 BiDir
SYMBOL OpAmps\\LM741 240 80 R0
SYMATTR InstName U1
SYMBOL res 48 144 R90
WINDOW 0 0 56 VBottom 2
WINDOW 3 32 56 VTop 2
SYMATTR InstName R1
SYMATTR Value 100k
SYMBOL cap 128 240 R180
WINDOW 0 24 56 Left 2
WINDOW 3 24 8 Left 2
SYMATTR InstName C1
SYMATTR Value 0.01µ
SYMBOL voltage -224 176 R0
WINDOW 123 24 124 Left 2
WINDOW 39 0 0 Left 0
SYMATTR Value2 AC 1
SYMATTR InstName V1
SYMATTR Value SINE(0 1 1k 0 0 0 10)
SYMBOL res 144 64 R90
WINDOW 0 0 56 VBottom 2
WINDOW 3 32 56 VTop 2
SYMATTR InstName R2
SYMATTR Value 10k
SYMBOL res 368 -32 R90
WINDOW 0 0 56 VBottom 2
WINDOW 3 32 56 VTop 2
SYMATTR InstName R3
SYMATTR Value 100k
SYMBOL voltage -480 16 R0
WINDOW 123 0 0 Left 0
WINDOW 39 0 0 Left 0
SYMATTR InstName V2
SYMATTR Value 12
SYMBOL voltage -480 176 R0
WINDOW 123 0 0 Left 0
WINDOW 39 0 0 Left 0
SYMATTR InstName V3
SYMATTR Value 12
TEXT -200 328 Left 2 !.ac dec 10 1 1meg
TEXT -200 352 Left 2 ;.op
