Version 4.1
SHEET 1 1120 680
WIRE -848 -240 -880 -240
WIRE 224 -208 176 -208
WIRE -656 -160 -672 -160
WIRE 288 -112 112 -112
WIRE 400 -112 368 -112
WIRE 752 -112 720 -112
WIRE 16 -96 -160 -96
WIRE 176 -64 176 -208
WIRE 96 -48 96 -96
WIRE 112 -48 112 -112
WIRE 112 -48 96 -48
WIRE 144 -48 112 -48
WIRE -880 -32 -880 -240
WIRE 400 -32 400 -112
WIRE 400 -32 208 -32
WIRE 480 -32 400 -32
WIRE 640 -32 560 -32
WIRE 48 -16 0 -16
WIRE 144 -16 48 -16
WIRE 768 -16 672 -16
WIRE 912 -16 848 -16
WIRE -160 0 -160 -96
WIRE 48 0 48 -16
WIRE 720 32 720 -112
WIRE -672 48 -672 -160
WIRE -64 48 -64 -16
WIRE -64 48 -304 48
WIRE 640 48 640 -32
WIRE 672 48 672 -16
WIRE 672 48 640 48
WIRE 688 48 672 48
WIRE 176 64 176 0
WIRE 416 64 240 64
WIRE 912 64 912 -16
WIRE 912 64 752 64
WIRE 1008 64 912 64
WIRE 688 80 672 80
WIRE -880 96 -880 48
WIRE -880 96 -1024 96
WIRE -304 128 -304 48
WIRE -240 128 -304 128
WIRE 304 128 176 128
WIRE 416 128 384 128
WIRE -1024 144 -1024 96
WIRE 48 144 48 80
WIRE -880 160 -880 96
WIRE 672 176 672 80
WIRE 240 192 240 64
WIRE 80 208 -160 208
WIRE 176 208 176 128
WIRE 176 208 160 208
WIRE 208 208 176 208
WIRE -672 224 -672 128
WIRE 416 224 416 128
WIRE 416 224 272 224
WIRE 496 224 416 224
WIRE 640 224 640 48
WIRE 640 224 576 224
WIRE 208 240 144 240
WIRE 720 240 720 96
WIRE 736 240 720 240
WIRE -64 256 -64 48
WIRE 64 256 16 256
WIRE 144 256 144 240
WIRE 144 256 64 256
WIRE -160 304 -160 208
WIRE 64 304 64 256
WIRE 240 368 240 256
WIRE 256 368 240 368
WIRE 64 448 64 368
WIRE -880 544 -880 240
FLAG -160 0 0
FLAG 48 144 0
FLAG -240 128 Vsup
IOPIN -240 128 BiDir
FLAG 64 448 0
FLAG -160 304 0
FLAG 672 176 0
FLAG -672 224 0
FLAG -656 -160 Vsup
IOPIN -656 -160 BiDir
FLAG -848 -240 Vdd
IOPIN -848 -240 BiDir
FLAG -880 544 Vss
IOPIN -880 544 BiDir
FLAG -1024 144 0
FLAG 224 -208 Vdd
IOPIN 224 -208 BiDir
FLAG 416 64 Vdd
IOPIN 416 64 BiDir
FLAG 256 368 Vss
IOPIN 256 368 BiDir
FLAG 176 64 Vss
IOPIN 176 64 BiDir
FLAG 752 -112 Vdd
IOPIN 752 -112 BiDir
FLAG 736 240 Vss
IOPIN 736 240 BiDir
FLAG 1008 64 Vout
IOPIN 1008 64 BiDir
SYMBOL cap 0 -32 R90
WINDOW 0 0 32 VBottom 2
WINDOW 3 32 32 VTop 2
SYMATTR InstName C1
SYMATTR Value 0.1µ
SYMBOL res 32 -16 R0
SYMATTR InstName R1
SYMATTR Value 1.5915k
SYMBOL OpAmps\\LM741 176 -96 R0
SYMATTR InstName U1
SYMBOL res 112 -112 R90
WINDOW 0 0 56 VBottom 2
WINDOW 3 32 56 VTop 2
SYMATTR InstName R2
SYMATTR Value 10k
SYMBOL res 384 -128 R90
WINDOW 0 0 56 VBottom 2
WINDOW 3 32 56 VTop 2
SYMATTR InstName R3
SYMATTR Value 10k
SYMBOL res 32 240 R90
WINDOW 0 0 56 VBottom 2
WINDOW 3 32 56 VTop 2
SYMATTR InstName R4
SYMATTR Value 7.9577k
SYMBOL cap 48 304 R0
SYMATTR InstName C2
SYMATTR Value 0.1µ
SYMBOL OpAmps\\LM741 240 160 R0
SYMATTR InstName U2
SYMBOL res 176 192 R90
WINDOW 0 0 56 VBottom 2
WINDOW 3 32 56 VTop 2
SYMATTR InstName R5
SYMATTR Value 10k
SYMBOL res 400 112 R90
WINDOW 0 0 56 VBottom 2
WINDOW 3 32 56 VTop 2
SYMATTR InstName R6
SYMATTR Value 10k
SYMBOL res 576 -48 R90
WINDOW 0 0 56 VBottom 2
WINDOW 3 32 56 VTop 2
SYMATTR InstName R7
SYMATTR Value 10k
SYMBOL res 592 208 R90
WINDOW 0 0 56 VBottom 2
WINDOW 3 32 56 VTop 2
SYMATTR InstName R8
SYMATTR Value 10k
SYMBOL OpAmps\\LM741 720 0 R0
SYMATTR InstName U3
SYMBOL res 864 -32 R90
WINDOW 0 0 56 VBottom 2
WINDOW 3 32 56 VTop 2
SYMATTR InstName R9
SYMATTR Value 10k
SYMBOL voltage -672 32 R0
WINDOW 123 24 124 Left 2
WINDOW 39 0 0 Left 0
SYMATTR Value2 AC 2
SYMATTR InstName V1
SYMATTR Value SINE(0 2 500)
SYMBOL voltage -880 -48 R0
WINDOW 123 0 0 Left 0
WINDOW 39 0 0 Left 0
SYMATTR InstName V2
SYMATTR Value 12
SYMBOL voltage -880 144 R0
WINDOW 123 0 0 Left 0
WINDOW 39 0 0 Left 0
SYMATTR InstName V3
SYMATTR Value 12
TEXT -344 504 Left 2 !.ac dec 10 1 1meg
TEXT -344 536 Left 2 ;.op
