Version 4.1
SHEET 1 1184 680
WIRE -384 -176 -400 -176
WIRE -48 -48 -64 -48
WIRE 864 -32 656 -32
WIRE -400 32 -400 -176
WIRE 688 32 624 32
WIRE 832 32 768 32
WIRE 368 80 -208 80
WIRE 624 80 624 32
WIRE 624 80 448 80
WIRE 656 80 656 -32
WIRE 688 80 656 80
WIRE 688 128 688 80
WIRE -400 144 -400 112
WIRE -400 144 -480 144
WIRE 624 144 624 80
WIRE 656 144 624 144
WIRE 832 160 832 32
WIRE 832 160 720 160
WIRE 912 160 832 160
WIRE 1072 160 912 160
WIRE -400 176 -400 144
WIRE -64 176 -64 -48
WIRE 128 176 -64 176
WIRE 240 176 192 176
WIRE 336 176 240 176
WIRE 512 176 400 176
WIRE 656 176 512 176
WIRE -208 224 -208 80
WIRE 240 240 240 176
WIRE 512 240 512 176
WIRE -64 256 -64 176
WIRE -480 304 -480 144
WIRE 688 336 688 192
WIRE 752 336 688 336
WIRE 240 400 240 320
WIRE 912 400 912 160
WIRE 912 400 240 400
WIRE -64 432 -64 336
WIRE -400 448 -400 256
WIRE 512 480 512 320
FLAG 512 480 0
FLAG -208 224 0
FLAG 1072 160 Vout
IOPIN 1072 160 BiDir
FLAG -64 432 0
FLAG -48 -48 Vin
IOPIN -48 -48 BiDir
FLAG -400 448 Vss
IOPIN -400 448 BiDir
FLAG -384 -176 Vdd
IOPIN -384 -176 BiDir
FLAG -480 304 0
FLAG 864 -32 Vdd
IOPIN 864 -32 BiDir
FLAG 752 336 Vss
IOPIN 752 336 BiDir
SYMBOL cap 192 160 R90
WINDOW 0 0 32 VBottom 2
WINDOW 3 32 32 VTop 2
SYMATTR InstName C1
SYMATTR Value 0.1µ
SYMBOL res 224 224 R0
SYMATTR InstName R1
SYMATTR Value 1.591k
SYMBOL cap 400 160 R90
WINDOW 0 0 32 VBottom 2
WINDOW 3 32 32 VTop 2
SYMATTR InstName C2
SYMATTR Value 0.1µ
SYMBOL res 496 224 R0
SYMATTR InstName R2
SYMATTR Value 1.591k
SYMBOL voltage -64 240 R0
WINDOW 123 24 124 Left 2
WINDOW 39 0 0 Left 0
SYMATTR InstName V1
SYMATTR Value SINE(0 5 1k 0 0 0 100)
SYMATTR Value2 AC 5
SYMBOL OpAmps\\LM741 688 96 R0
SYMATTR InstName U1
SYMBOL res 464 64 R90
WINDOW 0 0 56 VBottom 2
WINDOW 3 32 56 VTop 2
SYMATTR InstName R3
SYMATTR Value 56k
SYMBOL res 784 16 R90
WINDOW 0 0 56 VBottom 2
WINDOW 3 32 56 VTop 2
SYMATTR InstName R4
SYMATTR Value 33k
SYMBOL voltage -400 16 R0
WINDOW 123 0 0 Left 0
WINDOW 39 0 0 Left 0
SYMATTR InstName V2
SYMATTR Value 12
SYMBOL voltage -400 160 R0
WINDOW 123 0 0 Left 0
WINDOW 39 0 0 Left 0
SYMATTR InstName V3
SYMATTR Value 12
TEXT -32 480 Left 2 !.ac dec 10 1 1meg
TEXT -32 512 Left 2 !.op
