Version 4.1
SHEET 1 1264 680
WIRE 1072 -160 752 -160
WIRE -368 -128 -512 -128
WIRE 0 -96 -16 -96
WIRE 800 -48 688 -48
WIRE 992 -48 880 -48
WIRE 464 0 -128 0
WIRE 688 0 688 -48
WIRE 688 0 544 0
WIRE 752 0 752 -160
WIRE 848 0 752 0
WIRE -512 32 -512 -128
WIRE 848 32 848 0
WIRE 688 48 688 0
WIRE 816 48 688 48
WIRE 992 64 992 -48
WIRE 992 64 880 64
WIRE 1024 64 992 64
WIRE 1152 64 1024 64
WIRE 816 80 768 80
WIRE -16 96 -16 -96
WIRE 176 96 -16 96
WIRE 368 96 256 96
WIRE 480 96 368 96
WIRE 672 96 560 96
WIRE 768 96 768 80
WIRE 768 96 672 96
WIRE -16 144 -16 96
WIRE -512 160 -512 112
WIRE -512 160 -624 160
WIRE 368 160 368 96
WIRE 672 160 672 96
WIRE -512 176 -512 160
WIRE 848 224 848 96
WIRE 880 224 848 224
WIRE -624 256 -624 160
WIRE 368 288 368 224
WIRE 1024 288 1024 64
WIRE 1024 288 368 288
WIRE 672 336 672 224
WIRE -16 352 -16 224
WIRE -128 368 -128 0
WIRE -512 480 -512 256
WIRE -496 480 -512 480
FLAG 672 336 0
FLAG -16 352 0
FLAG -128 368 0
FLAG 1152 64 Vout
IOPIN 1152 64 BiDir
FLAG 0 -96 Vin
IOPIN 0 -96 BiDir
FLAG -624 256 0
FLAG -496 480 Vss
IOPIN -496 480 BiDir
FLAG -368 -128 Vdd
IOPIN -368 -128 BiDir
FLAG 1072 -160 Vdd
IOPIN 1072 -160 BiDir
FLAG 880 224 Vss
IOPIN 880 224 BiDir
SYMBOL voltage -16 128 R0
WINDOW 123 24 124 Left 2
WINDOW 39 0 0 Left 0
SYMATTR InstName V1
SYMATTR Value SINE(0 5 1k 0 0 0 100)
SYMATTR Value2 AC 5
SYMBOL res 272 80 R90
WINDOW 0 0 56 VBottom 2
WINDOW 3 32 56 VTop 2
SYMATTR InstName R1
SYMATTR Value 1.591k
SYMBOL cap 352 160 R0
SYMATTR InstName C1
SYMATTR Value 0.1µ
SYMBOL res 576 80 R90
WINDOW 0 0 56 VBottom 2
WINDOW 3 32 56 VTop 2
SYMATTR InstName R2
SYMATTR Value 1.591k
SYMBOL cap 656 160 R0
SYMATTR InstName C2
SYMATTR Value 0.1µ
SYMBOL OpAmps\\LM741 848 0 R0
SYMATTR InstName U1
SYMBOL res 560 -16 R90
WINDOW 0 0 56 VBottom 2
WINDOW 3 32 56 VTop 2
SYMATTR InstName R3
SYMATTR Value 56k
SYMBOL res 896 -64 R90
WINDOW 0 0 56 VBottom 2
WINDOW 3 32 56 VTop 2
SYMATTR InstName R4
SYMATTR Value 33k
SYMBOL voltage -512 16 R0
WINDOW 123 0 0 Left 0
WINDOW 39 0 0 Left 0
SYMATTR InstName V2
SYMATTR Value 12
SYMBOL voltage -512 160 R0
WINDOW 123 0 0 Left 0
WINDOW 39 0 0 Left 0
SYMATTR InstName V3
SYMATTR Value 12
TEXT 8 280 Left 2 !.ac dec 10 1 1meg
TEXT 8 312 Left 2 ;.op
