Version 4.1
SHEET 1 904 680
WIRE -80 -64 -96 -64
WIRE 560 -48 400 -48
WIRE 720 -48 624 -48
WIRE 128 0 112 0
WIRE 496 16 480 16
WIRE -96 80 -96 -64
WIRE 400 80 400 -48
WIRE 560 80 400 80
WIRE 720 80 720 -48
WIRE 720 80 640 80
WIRE 480 112 480 16
WIRE 112 128 112 0
WIRE 160 128 112 128
WIRE 288 128 240 128
WIRE 400 128 400 80
WIRE 400 128 352 128
WIRE 448 128 400 128
WIRE 720 144 720 80
WIRE 720 144 512 144
WIRE 816 144 720 144
WIRE 448 160 416 160
WIRE -96 176 -96 160
WIRE -96 176 -256 176
WIRE -96 192 -96 176
WIRE 112 192 112 128
WIRE -256 256 -256 176
WIRE 480 272 480 176
WIRE 496 272 480 272
WIRE 112 320 112 272
WIRE 416 320 416 160
WIRE 416 320 112 320
WIRE 416 336 416 320
WIRE -96 416 -96 272
FLAG 416 336 0
FLAG -96 416 VSS
IOPIN -96 416 BiDir
FLAG -80 -64 VDD
IOPIN -80 -64 BiDir
FLAG -256 256 0
FLAG 496 272 VSS
IOPIN 496 272 BiDir
FLAG 496 16 VDD
IOPIN 496 16 BiDir
FLAG 816 144 Vo
IOPIN 816 144 BiDir
FLAG 128 0 Vin
IOPIN 128 0 BiDir
SYMBOL OpAmps\\LM741 480 80 R0
SYMATTR InstName U1
SYMBOL voltage -96 64 R0
WINDOW 123 0 0 Left 0
WINDOW 39 0 0 Left 0
SYMATTR InstName V2
SYMATTR Value 12
SYMBOL voltage -96 176 R0
WINDOW 123 0 0 Left 0
WINDOW 39 0 0 Left 0
SYMATTR InstName V3
SYMATTR Value 12
SYMBOL res 656 64 R90
WINDOW 0 0 56 VBottom 2
WINDOW 3 32 56 VTop 2
SYMATTR InstName R1
SYMATTR Value 16k
SYMBOL voltage 112 176 R0
WINDOW 123 24 124 Left 2
WINDOW 39 0 0 Left 0
SYMATTR InstName V1
SYMATTR Value SINE(0 5 1k)
SYMATTR Value2 AC 5
SYMBOL res 256 112 R90
WINDOW 0 0 56 VBottom 2
WINDOW 3 32 56 VTop 2
SYMATTR InstName R2
SYMATTR Value 1.59k
SYMBOL cap 352 112 R90
WINDOW 0 0 32 VBottom 2
WINDOW 3 32 32 VTop 2
SYMATTR InstName C1
SYMATTR Value 0.1µ
SYMBOL cap 624 -64 R90
WINDOW 0 0 32 VBottom 2
WINDOW 3 32 32 VTop 2
SYMATTR InstName C2
SYMATTR Value 0.01µ
TEXT 32 504 Left 2 ;.op
TEXT -272 528 Left 2 !.ac dec 10 1 1meg
