Version 4.1
SHEET 1 880 680
WIRE 272 -128 160 -128
WIRE 464 -128 352 -128
WIRE 160 -32 160 -128
WIRE 272 -32 160 -32
WIRE 464 -32 464 -128
WIRE 464 -32 336 -32
WIRE 272 48 224 48
WIRE -224 96 -224 -32
WIRE 224 144 224 48
WIRE -16 160 -16 0
WIRE 48 160 -16 160
WIRE 160 160 160 -32
WIRE 160 160 128 160
WIRE 192 160 160 160
WIRE 464 176 464 -32
WIRE 464 176 256 176
WIRE 608 176 464 176
WIRE 192 192 160 192
WIRE -224 208 -224 176
WIRE -224 208 -336 208
WIRE -16 224 -16 160
WIRE -224 240 -224 208
WIRE -336 256 -336 208
WIRE 224 320 224 208
WIRE 240 320 224 320
WIRE -16 368 -16 304
WIRE 160 368 160 192
WIRE 160 368 -16 368
WIRE 160 416 160 368
WIRE -224 448 -224 320
FLAG 160 416 0
FLAG -336 256 0
FLAG -224 -32 VDD
IOPIN -224 -32 BiDir
FLAG -224 448 VSS
IOPIN -224 448 BiDir
FLAG 272 48 VDD
IOPIN 272 48 BiDir
FLAG 240 320 VSS
IOPIN 240 320 BiDir
FLAG 608 176 Vo
IOPIN 608 176 BiDir
FLAG -16 0 Vin
IOPIN -16 0 BiDir
SYMBOL OpAmps\\LM741 224 112 R0
SYMATTR InstName U1
SYMBOL voltage -16 208 R0
WINDOW 123 24 124 Left 2
WINDOW 39 0 0 Left 0
SYMATTR InstName V1
SYMATTR Value SINE(0 5 1k)
SYMATTR Value2 AC 5
SYMBOL res 144 144 R90
WINDOW 0 0 56 VBottom 2
WINDOW 3 32 56 VTop 2
SYMATTR InstName R1
SYMATTR Value 1.59k
SYMBOL voltage -224 80 R0
WINDOW 123 0 0 Left 0
WINDOW 39 0 0 Left 0
SYMATTR InstName V2
SYMATTR Value 12
SYMBOL voltage -224 224 R0
WINDOW 123 0 0 Left 0
WINDOW 39 0 0 Left 0
SYMATTR InstName V3
SYMATTR Value 12
SYMBOL cap 336 -48 R90
WINDOW 0 0 32 VBottom 2
WINDOW 3 32 32 VTop 2
SYMATTR InstName C1
SYMATTR Value 0.01µ
SYMBOL res 368 -144 R90
WINDOW 0 0 56 VBottom 2
WINDOW 3 32 56 VTop 2
SYMATTR InstName R2
SYMATTR Value 16k
TEXT 0 536 Left 2 !.ac dec 10 1 1meg
TEXT 0 584 Left 2 ;.op
